# generated using pymatgen
data_LuPPd
_symmetry_space_group_name_H-M   'P 1'
_cell_length_a   3.92080203
_cell_length_b   6.79564662
_cell_length_c   7.65533270
_cell_angle_alpha   90.00000000
_cell_angle_beta   90.00000000
_cell_angle_gamma   90.00000000
_symmetry_Int_Tables_number   1
_chemical_formula_structural   LuPPd
_chemical_formula_sum   'Lu4 P4 Pd4'
_cell_volume   203.97163224
_cell_formula_units_Z   4
loop_
 _symmetry_equiv_pos_site_id
 _symmetry_equiv_pos_as_xyz
  1  'x, y, z'
loop_
 _atom_site_type_symbol
 _atom_site_label
 _atom_site_symmetry_multiplicity
 _atom_site_fract_x
 _atom_site_fract_y
 _atom_site_fract_z
 _atom_site_occupancy
  Lu  Lu0  1  0.25000000  0.53443283  0.18733890  1
  Lu  Lu1  1  0.75000000  0.46556717  0.81266110  1
  Lu  Lu2  1  0.75000000  0.96556717  0.68733890  1
  Lu  Lu3  1  0.25000000  0.03443283  0.31266110  1
  P  P4  1  0.25000000  0.74423935  0.87603954  1
  P  P5  1  0.75000000  0.25576065  0.12396046  1
  P  P6  1  0.75000000  0.75576065  0.37603954  1
  P  P7  1  0.25000000  0.24423935  0.62396046  1
  Pd  Pd8  1  0.25000000  0.64757167  0.56160229  1
  Pd  Pd9  1  0.75000000  0.35242833  0.43839771  1
  Pd  Pd10  1  0.75000000  0.85242833  0.06160229  1
  Pd  Pd11  1  0.25000000  0.14757167  0.93839771  1
