# generated using pymatgen
data_ErZnRh
_symmetry_space_group_name_H-M   'P 1'
_cell_length_a   3.95441928
_cell_length_b   6.86065185
_cell_length_c   8.03667606
_cell_angle_alpha   90.00000000
_cell_angle_beta   90.00000000
_cell_angle_gamma   90.00000000
_symmetry_Int_Tables_number   1
_chemical_formula_structural   ErZnRh
_chemical_formula_sum   'Er4 Zn4 Rh4'
_cell_volume   218.03416921
_cell_formula_units_Z   4
loop_
 _symmetry_equiv_pos_site_id
 _symmetry_equiv_pos_as_xyz
  1  'x, y, z'
loop_
 _atom_site_type_symbol
 _atom_site_label
 _atom_site_symmetry_multiplicity
 _atom_site_fract_x
 _atom_site_fract_y
 _atom_site_fract_z
 _atom_site_occupancy
  Er  Er0  1  0.25000000  0.54164643  0.18331233  1
  Er  Er1  1  0.75000000  0.45835035  0.81668448  1
  Er  Er2  1  0.75000000  0.95835035  0.68331552  1
  Er  Er3  1  0.25000000  0.04164643  0.31668767  1
  Zn  Zn4  1  0.25000000  0.63448522  0.56312616  1
  Zn  Zn5  1  0.75000000  0.36551921  0.43686545  1
  Zn  Zn6  1  0.75000000  0.86551921  0.06313455  1
  Zn  Zn7  1  0.25000000  0.13448522  0.93687384  1
  Rh  Rh8  1  0.25000000  0.75253277  0.87561242  1
  Rh  Rh9  1  0.75000000  0.24746502  0.12438672  1
  Rh  Rh10  1  0.75000000  0.74746502  0.37561328  1
  Rh  Rh11  1  0.25000000  0.25253277  0.62438758  1
