# generated using pymatgen
data_YbSiPd
_symmetry_space_group_name_H-M   'P 1'
_cell_length_a   4.35131867
_cell_length_b   7.01628361
_cell_length_c   7.19865042
_cell_angle_alpha   90.00131411
_cell_angle_beta   90.00000000
_cell_angle_gamma   90.00000000
_symmetry_Int_Tables_number   1
_chemical_formula_structural   YbSiPd
_chemical_formula_sum   'Yb4 Si4 Pd4'
_cell_volume   219.77541542
_cell_formula_units_Z   4
loop_
 _symmetry_equiv_pos_site_id
 _symmetry_equiv_pos_as_xyz
  1  'x, y, z'
loop_
 _atom_site_type_symbol
 _atom_site_label
 _atom_site_symmetry_multiplicity
 _atom_site_fract_x
 _atom_site_fract_y
 _atom_site_fract_z
 _atom_site_occupancy
  Yb  Yb0  1  0.25000000  0.48686247  0.18899651  1
  Yb  Yb1  1  0.75000000  0.51314050  0.81101490  1
  Yb  Yb2  1  0.75000000  0.01313422  0.68895330  1
  Yb  Yb3  1  0.25000000  0.98685161  0.31106663  1
  Si  Si4  1  0.25000000  0.82467791  0.92055224  1
  Si  Si5  1  0.75000000  0.17532042  0.07944103  1
  Si  Si6  1  0.75000000  0.67530352  0.42058544  1
  Si  Si7  1  0.25000000  0.32468994  0.57944384  1
  Pd  Pd8  1  0.25000000  0.69135243  0.60008943  1
  Pd  Pd9  1  0.75000000  0.30866310  0.39989548  1
  Pd  Pd10  1  0.75000000  0.80865302  0.10011180  1
  Pd  Pd11  1  0.25000000  0.19135086  0.89984840  1
