# generated using pymatgen
data_TbPPd
_symmetry_space_group_name_H-M   'P 1'
_cell_length_a   4.02440848
_cell_length_b   6.96639589
_cell_length_c   7.72854515
_cell_angle_alpha   90.00000000
_cell_angle_beta   90.00000000
_cell_angle_gamma   90.00000000
_symmetry_Int_Tables_number   1
_chemical_formula_structural   TbPPd
_chemical_formula_sum   'Tb4 P4 Pd4'
_cell_volume   216.67457580
_cell_formula_units_Z   4
loop_
 _symmetry_equiv_pos_site_id
 _symmetry_equiv_pos_as_xyz
  1  'x, y, z'
loop_
 _atom_site_type_symbol
 _atom_site_label
 _atom_site_symmetry_multiplicity
 _atom_site_fract_x
 _atom_site_fract_y
 _atom_site_fract_z
 _atom_site_occupancy
  Tb  Tb0  1  0.25000000  0.52911349  0.18980465  1
  Tb  Tb1  1  0.75000000  0.47088651  0.81019535  1
  Tb  Tb2  1  0.75000000  0.97088651  0.68980465  1
  Tb  Tb3  1  0.25000000  0.02911349  0.31019535  1
  P  P4  1  0.25000000  0.75128251  0.87926502  1
  P  P5  1  0.75000000  0.24871749  0.12073498  1
  P  P6  1  0.75000000  0.74871749  0.37926502  1
  P  P7  1  0.25000000  0.25128251  0.62073498  1
  Pd  Pd8  1  0.25000000  0.65120625  0.56188275  1
  Pd  Pd9  1  0.75000000  0.34879375  0.43811725  1
  Pd  Pd10  1  0.75000000  0.84879375  0.06188275  1
  Pd  Pd11  1  0.25000000  0.15120525  0.93811725  1
