# generated using pymatgen
data_TmPPd
_symmetry_space_group_name_H-M   'P 1'
_cell_length_a   3.94949918
_cell_length_b   6.84379148
_cell_length_c   7.67347421
_cell_angle_alpha   90.00000000
_cell_angle_beta   90.00000000
_cell_angle_gamma   90.00000000
_symmetry_Int_Tables_number   1
_chemical_formula_structural   TmPPd
_chemical_formula_sum   'Tm4 P4 Pd4'
_cell_volume   207.41054592
_cell_formula_units_Z   4
loop_
 _symmetry_equiv_pos_site_id
 _symmetry_equiv_pos_as_xyz
  1  'x, y, z'
loop_
 _atom_site_type_symbol
 _atom_site_label
 _atom_site_symmetry_multiplicity
 _atom_site_fract_x
 _atom_site_fract_y
 _atom_site_fract_z
 _atom_site_occupancy
  Tm  Tm0  1  0.25000000  0.53277878  0.18785566  1
  Tm  Tm1  1  0.75000000  0.46722122  0.81214434  1
  Tm  Tm2  1  0.75000000  0.96722122  0.68785566  1
  Tm  Tm3  1  0.25000000  0.03277878  0.31214434  1
  P  P4  1  0.25000000  0.74642349  0.87657812  1
  P  P5  1  0.75000000  0.25357651  0.12342188  1
  P  P6  1  0.75000000  0.75357651  0.37657812  1
  P  P7  1  0.25000000  0.24642349  0.62342188  1
  Pd  Pd8  1  0.25000000  0.64835180  0.56140846  1
  Pd  Pd9  1  0.75000000  0.35164820  0.43859154  1
  Pd  Pd10  1  0.75000000  0.85164820  0.06140846  1
  Pd  Pd11  1  0.25000000  0.14835180  0.93859154  1
