# generated using pymatgen
data_YbMgAg
_symmetry_space_group_name_H-M   'P 1'
_cell_length_a   4.25041274
_cell_length_b   7.48843335
_cell_length_c   8.93433573
_cell_angle_alpha   90.00000000
_cell_angle_beta   90.00000000
_cell_angle_gamma   90.00000000
_symmetry_Int_Tables_number   1
_chemical_formula_structural   YbMgAg
_chemical_formula_sum   'Yb4 Mg4 Ag4'
_cell_volume   284.37036900
_cell_formula_units_Z   4
loop_
 _symmetry_equiv_pos_site_id
 _symmetry_equiv_pos_as_xyz
  1  'x, y, z'
loop_
 _atom_site_type_symbol
 _atom_site_label
 _atom_site_symmetry_multiplicity
 _atom_site_fract_x
 _atom_site_fract_y
 _atom_site_fract_z
 _atom_site_occupancy
  Yb  Yb0  1  0.25000000  0.53990577  0.17678967  1
  Yb  Yb1  1  0.75000000  0.46009423  0.82321033  1
  Yb  Yb2  1  0.75000000  0.96009423  0.67678967  1
  Yb  Yb3  1  0.25000000  0.03990577  0.32321033  1
  Mg  Mg4  1  0.25000000  0.63532761  0.55967263  1
  Mg  Mg5  1  0.75000000  0.36467239  0.44032737  1
  Mg  Mg6  1  0.75000000  0.86467239  0.05967263  1
  Mg  Mg7  1  0.25000000  0.13532761  0.94032737  1
  Ag  Ag8  1  0.25000000  0.75643508  0.86727007  1
  Ag  Ag9  1  0.75000000  0.24356492  0.13272993  1
  Ag  Ag10  1  0.75000000  0.74356492  0.36727007  1
  Ag  Ag11  1  0.25000000  0.25643508  0.63272993  1
