# generated using pymatgen
data_PrAlRh
_symmetry_space_group_name_H-M   'P 1'
_cell_length_a   4.26753713
_cell_length_b   7.07293791
_cell_length_c   8.18203364
_cell_angle_alpha   90.00000000
_cell_angle_beta   90.00000000
_cell_angle_gamma   90.00000000
_symmetry_Int_Tables_number   1
_chemical_formula_structural   PrAlRh
_chemical_formula_sum   'Pr4 Al4 Rh4'
_cell_volume   246.96670916
_cell_formula_units_Z   4
loop_
 _symmetry_equiv_pos_site_id
 _symmetry_equiv_pos_as_xyz
  1  'x, y, z'
loop_
 _atom_site_type_symbol
 _atom_site_label
 _atom_site_symmetry_multiplicity
 _atom_site_fract_x
 _atom_site_fract_y
 _atom_site_fract_z
 _atom_site_occupancy
  Pr  Pr0  1  0.25000000  0.53849124  0.18100639  1
  Pr  Pr1  1  0.75000000  0.46150876  0.81899361  1
  Pr  Pr2  1  0.75000000  0.96150876  0.68100639  1
  Pr  Pr3  1  0.25000000  0.03849124  0.31899361  1
  Al  Al4  1  0.25000000  0.63126945  0.55842813  1
  Al  Al5  1  0.75000000  0.36873055  0.44157187  1
  Al  Al6  1  0.75000000  0.86873055  0.05842813  1
  Al  Al7  1  0.25000000  0.13126945  0.94157187  1
  Rh  Rh8  1  0.25000000  0.77317122  0.88498818  1
  Rh  Rh9  1  0.75000000  0.22682878  0.11501182  1
  Rh  Rh10  1  0.75000000  0.72682878  0.38498818  1
  Rh  Rh11  1  0.25000000  0.27317122  0.61501182  1
