# generated using pymatgen
data_LuZnRh
_symmetry_space_group_name_H-M   'P 1'
_cell_length_a   3.92901531
_cell_length_b   6.78209436
_cell_length_c   7.98166393
_cell_angle_alpha   89.99998276
_cell_angle_beta   90.00000463
_cell_angle_gamma   90.00000203
_symmetry_Int_Tables_number   1
_chemical_formula_structural   LuZnRh
_chemical_formula_sum   'Lu4 Zn4 Rh4'
_cell_volume   212.68702021
_cell_formula_units_Z   4
loop_
 _symmetry_equiv_pos_site_id
 _symmetry_equiv_pos_as_xyz
  1  'x, y, z'
loop_
 _atom_site_type_symbol
 _atom_site_label
 _atom_site_symmetry_multiplicity
 _atom_site_fract_x
 _atom_site_fract_y
 _atom_site_fract_z
 _atom_site_occupancy
  Lu  Lu0  1  0.25000024  0.54195342  0.18178822  1
  Lu  Lu1  1  0.74999973  0.45804691  0.81821130  1
  Lu  Lu2  1  0.75000020  0.95803517  0.68177964  1
  Lu  Lu3  1  0.24999969  0.04196387  0.31822019  1
  Zn  Zn4  1  0.24999984  0.63422313  0.56272700  1
  Zn  Zn5  1  0.75000021  0.36577919  0.43727113  1
  Zn  Zn6  1  0.75000018  0.86573617  0.06280666  1
  Zn  Zn7  1  0.25000000  0.13426248  0.93719623  1
  Rh  Rh8  1  0.25000013  0.75074111  0.87429112  1
  Rh  Rh9  1  0.74999991  0.24925866  0.12570882  1
  Rh  Rh10  1  0.74999985  0.74928071  0.37432191  1
  Rh  Rh11  1  0.25000001  0.25071917  0.62567776  1
