# generated using pymatgen
data_TmSiIr
_symmetry_space_group_name_H-M   'P 1'
_cell_length_a   4.17521004
_cell_length_b   6.73360636
_cell_length_c   7.39098368
_cell_angle_alpha   89.99969000
_cell_angle_beta   90.00000000
_cell_angle_gamma   90.00000000
_symmetry_Int_Tables_number   1
_chemical_formula_structural   TmSiIr
_chemical_formula_sum   'Tm4 Si4 Ir4'
_cell_volume   207.79174770
_cell_formula_units_Z   4
loop_
 _symmetry_equiv_pos_site_id
 _symmetry_equiv_pos_as_xyz
  1  'x, y, z'
loop_
 _atom_site_type_symbol
 _atom_site_label
 _atom_site_symmetry_multiplicity
 _atom_site_fract_x
 _atom_site_fract_y
 _atom_site_fract_z
 _atom_site_occupancy
  Tm  Tm0  1  0.25000000  0.50401220  0.18796644  1
  Tm  Tm1  1  0.75000000  0.49598780  0.81203356  1
  Tm  Tm2  1  0.75000000  0.99599190  0.68801188  1
  Tm  Tm3  1  0.25000000  0.00400810  0.31198812  1
  Si  Si4  1  0.25000000  0.79656189  0.88770438  1
  Si  Si5  1  0.75000000  0.20343811  0.11229562  1
  Si  Si6  1  0.75000000  0.70345410  0.38768749  1
  Si  Si7  1  0.25000000  0.29654590  0.61231251  1
  Ir  Ir8  1  0.25000000  0.65789136  0.56516499  1
  Ir  Ir9  1  0.75000000  0.34210864  0.43483501  1
  Ir  Ir10  1  0.75000000  0.84216403  0.06512364  1
  Ir  Ir11  1  0.25000000  0.15783597  0.93487636  1
