# generated using pymatgen
data_HoPPd
_symmetry_space_group_name_H-M   'P 1'
_cell_length_a   3.98459912
_cell_length_b   6.89912749
_cell_length_c   7.70186695
_cell_angle_alpha   90.00000000
_cell_angle_beta   90.00000000
_cell_angle_gamma   90.00000000
_symmetry_Int_Tables_number   1
_chemical_formula_structural   HoPPd
_chemical_formula_sum   'Ho4 P4 Pd4'
_cell_volume   211.72630434
_cell_formula_units_Z   4
loop_
 _symmetry_equiv_pos_site_id
 _symmetry_equiv_pos_as_xyz
  1  'x, y, z'
loop_
 _atom_site_type_symbol
 _atom_site_label
 _atom_site_symmetry_multiplicity
 _atom_site_fract_x
 _atom_site_fract_y
 _atom_site_fract_z
 _atom_site_occupancy
  Ho  Ho0  1  0.25000000  0.53077864  0.18866826  1
  Ho  Ho1  1  0.75000000  0.46922136  0.81133174  1
  Ho  Ho2  1  0.75000000  0.96922136  0.68866826  1
  Ho  Ho3  1  0.25000000  0.03077864  0.31133174  1
  P  P4  1  0.25000000  0.74896968  0.87770523  1
  P  P5  1  0.75000000  0.25103032  0.12229477  1
  P  P6  1  0.75000000  0.75103032  0.37770523  1
  P  P7  1  0.25000000  0.24896968  0.62229477  1
  Pd  Pd8  1  0.25000000  0.64956477  0.56177096  1
  Pd  Pd9  1  0.75000000  0.35043523  0.43822904  1
  Pd  Pd10  1  0.75000000  0.85043523  0.06177096  1
  Pd  Pd11  1  0.25000000  0.14956477  0.93822904  1
