# generated using pymatgen
data_CaMgPd
_symmetry_space_group_name_H-M   'P 1'
_cell_length_a   4.32171243
_cell_length_b   7.32590839
_cell_length_c   8.48621522
_cell_angle_alpha   90.00000000
_cell_angle_beta   90.00000000
_cell_angle_gamma   90.00000000
_symmetry_Int_Tables_number   1
_chemical_formula_structural   CaMgPd
_chemical_formula_sum   'Ca4 Mg4 Pd4'
_cell_volume   268.67755687
_cell_formula_units_Z   4
loop_
 _symmetry_equiv_pos_site_id
 _symmetry_equiv_pos_as_xyz
  1  'x, y, z'
loop_
 _atom_site_type_symbol
 _atom_site_label
 _atom_site_symmetry_multiplicity
 _atom_site_fract_x
 _atom_site_fract_y
 _atom_site_fract_z
 _atom_site_occupancy
  Ca  Ca0  1  0.25000000  0.02976979  0.32418405  1
  Ca  Ca1  1  0.25000000  0.52976979  0.17581595  1
  Ca  Ca2  1  0.75000000  0.97023021  0.67581595  1
  Ca  Ca3  1  0.75000000  0.47023021  0.82418405  1
  Mg  Mg4  1  0.25000000  0.13905308  0.93902259  1
  Mg  Mg5  1  0.25000000  0.63905308  0.56097741  1
  Mg  Mg6  1  0.75000000  0.86094692  0.06097741  1
  Mg  Mg7  1  0.75000000  0.36094692  0.43902259  1
  Pd  Pd8  1  0.25000000  0.27143942  0.62507019  1
  Pd  Pd9  1  0.25000000  0.77143942  0.87492981  1
  Pd  Pd10  1  0.75000000  0.72856058  0.37492981  1
  Pd  Pd11  1  0.75000000  0.22856058  0.12507019  1
