# generated using pymatgen
data_SrMgPt
_symmetry_space_group_name_H-M   'P 1'
_cell_length_a   4.44338923
_cell_length_b   7.57299142
_cell_length_c   8.58031189
_cell_angle_alpha   90.00000000
_cell_angle_beta   90.00000000
_cell_angle_gamma   90.00000000
_symmetry_Int_Tables_number   1
_chemical_formula_structural   SrMgPt
_chemical_formula_sum   'Sr4 Mg4 Pt4'
_cell_volume   288.72533727
_cell_formula_units_Z   4
loop_
 _symmetry_equiv_pos_site_id
 _symmetry_equiv_pos_as_xyz
  1  'x, y, z'
loop_
 _atom_site_type_symbol
 _atom_site_label
 _atom_site_symmetry_multiplicity
 _atom_site_fract_x
 _atom_site_fract_y
 _atom_site_fract_z
 _atom_site_occupancy
  Sr  Sr0  1  0.75000000  0.47275643  0.17805463  1
  Sr  Sr1  1  0.75000000  0.97275336  0.32194601  1
  Sr  Sr2  1  0.25000000  0.52724664  0.82194601  1
  Sr  Sr3  1  0.25000000  0.02724357  0.67805463  1
  Mg  Mg4  1  0.75000000  0.36338134  0.56381068  1
  Mg  Mg5  1  0.75000000  0.86338296  0.93618894  1
  Mg  Mg6  1  0.25000000  0.63661704  0.43618894  1
  Mg  Mg7  1  0.25000000  0.13661766  0.06381068  1
  Pt  Pt8  1  0.75000000  0.21860284  0.88265921  1
  Pt  Pt9  1  0.75000000  0.71860059  0.61734052  1
  Pt  Pt10  1  0.25000000  0.78139941  0.11734052  1
  Pt  Pt11  1  0.25000000  0.28139716  0.38265921  1
