# generated using pymatgen
data_DySiRh
_symmetry_space_group_name_H-M   'P 1'
_cell_length_a   4.23796847
_cell_length_b   6.89106045
_cell_length_c   7.33972044
_cell_angle_alpha   89.99983593
_cell_angle_beta   90.00000000
_cell_angle_gamma   90.00000000
_symmetry_Int_Tables_number   1
_chemical_formula_structural   DySiRh
_chemical_formula_sum   'Dy4 Si4 Rh4'
_cell_volume   214.34990704
_cell_formula_units_Z   4
loop_
 _symmetry_equiv_pos_site_id
 _symmetry_equiv_pos_as_xyz
  1  'x, y, z'
loop_
 _atom_site_type_symbol
 _atom_site_label
 _atom_site_symmetry_multiplicity
 _atom_site_fract_x
 _atom_site_fract_y
 _atom_site_fract_z
 _atom_site_occupancy
  Dy  Dy0  1  0.25000000  0.49739375  0.18931948  1
  Dy  Dy1  1  0.75000000  0.50266973  0.81067741  1
  Dy  Dy2  1  0.75000000  0.00261274  0.68940571  1
  Dy  Dy3  1  0.25000000  0.99732578  0.31058964  1
  Si  Si4  1  0.25000000  0.79761802  0.89580887  1
  Si  Si5  1  0.75000000  0.20237454  0.10419394  1
  Si  Si6  1  0.75000000  0.70241674  0.39577890  1
  Si  Si7  1  0.25000000  0.29759224  0.60422312  1
  Rh  Rh8  1  0.25000000  0.65209775  0.56909643  1
  Rh  Rh9  1  0.75000000  0.34794325  0.43090337  1
  Rh  Rh10  1  0.75000000  0.84796094  0.06904944  1
  Rh  Rh11  1  0.25000000  0.15199452  0.93095470  1
