# generated using pymatgen
data_DyPPd
_symmetry_space_group_name_H-M   'P 1'
_cell_length_a   4.00146134
_cell_length_b   6.92566912
_cell_length_c   7.72372764
_cell_angle_alpha   90.00000000
_cell_angle_beta   90.00000000
_cell_angle_gamma   90.00000000
_symmetry_Int_Tables_number   1
_chemical_formula_structural   DyPPd
_chemical_formula_sum   'Dy4 P4 Pd4'
_cell_volume   214.04609800
_cell_formula_units_Z   4
loop_
 _symmetry_equiv_pos_site_id
 _symmetry_equiv_pos_as_xyz
  1  'x, y, z'
loop_
 _atom_site_type_symbol
 _atom_site_label
 _atom_site_symmetry_multiplicity
 _atom_site_fract_x
 _atom_site_fract_y
 _atom_site_fract_z
 _atom_site_occupancy
  Dy  Dy0  1  0.25000000  0.52984399  0.18923023  1
  Dy  Dy1  1  0.75000000  0.47015601  0.81076977  1
  Dy  Dy2  1  0.75000000  0.97015601  0.68923023  1
  Dy  Dy3  1  0.25000000  0.02984399  0.31076977  1
  P  P4  1  0.25000000  0.74997460  0.87847836  1
  P  P5  1  0.75000000  0.25002540  0.12152164  1
  P  P6  1  0.75000000  0.75002540  0.37847836  1
  P  P7  1  0.25000000  0.24997460  0.62152164  1
  Pd  Pd8  1  0.25000000  0.65006500  0.56193659  1
  Pd  Pd9  1  0.75000000  0.34993500  0.43806341  1
  Pd  Pd10  1  0.75000000  0.84993500  0.06193659  1
  Pd  Pd11  1  0.25000000  0.15006500  0.93806341  1
