# generated using pymatgen
data_YbPPd
_symmetry_space_group_name_H-M   'P 1'
_cell_length_a   4.17490025
_cell_length_b   6.94452020
_cell_length_c   7.30136412
_cell_angle_alpha   89.99857773
_cell_angle_beta   89.99999722
_cell_angle_gamma   90.00000022
_symmetry_Int_Tables_number   1
_chemical_formula_structural   YbPPd
_chemical_formula_sum   'Yb4 P4 Pd4'
_cell_volume   211.68610703
_cell_formula_units_Z   4
loop_
 _symmetry_equiv_pos_site_id
 _symmetry_equiv_pos_as_xyz
  1  'x, y, z'
loop_
 _atom_site_type_symbol
 _atom_site_label
 _atom_site_symmetry_multiplicity
 _atom_site_fract_x
 _atom_site_fract_y
 _atom_site_fract_z
 _atom_site_occupancy
  Yb  Yb0  1  0.25000011  0.50360225  0.19975003  1
  Yb  Yb1  1  0.75000011  0.49640035  0.80024710  1
  Yb  Yb2  1  0.75000008  0.99641601  0.69975206  1
  Yb  Yb3  1  0.25000011  0.00358637  0.30024623  1
  P  P4  1  0.25000003  0.79067272  0.90185417  1
  P  P5  1  0.75000002  0.20933571  0.09813892  1
  P  P6  1  0.75000000  0.70930320  0.40187841  1
  P  P7  1  0.25000005  0.29069094  0.59812353  1
  Pd  Pd8  1  0.24999985  0.68160013  0.57669926  1
  Pd  Pd9  1  0.74999992  0.31841581  0.42330403  1
  Pd  Pd10  1  0.74999980  0.81840343  0.07670048  1
  Pd  Pd11  1  0.24999991  0.18157508  0.92330678  1
