# generated using pymatgen
data_YbAlPt
_symmetry_space_group_name_H-M   'P 1'
_cell_length_a   4.19173133
_cell_length_b   7.03069044
_cell_length_c   7.81410700
_cell_angle_alpha   90.00000000
_cell_angle_beta   90.00000000
_cell_angle_gamma   90.00000000
_symmetry_Int_Tables_number   1
_chemical_formula_structural   YbAlPt
_chemical_formula_sum   'Yb4 Al4 Pt4'
_cell_volume   230.28771412
_cell_formula_units_Z   4
loop_
 _symmetry_equiv_pos_site_id
 _symmetry_equiv_pos_as_xyz
  1  'x, y, z'
loop_
 _atom_site_type_symbol
 _atom_site_label
 _atom_site_symmetry_multiplicity
 _atom_site_fract_x
 _atom_site_fract_y
 _atom_site_fract_z
 _atom_site_occupancy
  Yb  Yb0  1  0.75000000  0.46817452  0.17249624  1
  Yb  Yb1  1  0.75000000  0.96817452  0.32750376  1
  Yb  Yb2  1  0.25000000  0.53182548  0.82750376  1
  Yb  Yb3  1  0.25000000  0.03182548  0.67249624  1
  Al  Al4  1  0.75000000  0.36392559  0.56019524  1
  Al  Al5  1  0.75000000  0.86392559  0.93980476  1
  Al  Al6  1  0.25000000  0.63607441  0.43980476  1
  Al  Al7  1  0.25000000  0.13607441  0.06019524  1
  Pt  Pt8  1  0.75000000  0.22196512  0.87409593  1
  Pt  Pt9  1  0.75000000  0.72196512  0.62590407  1
  Pt  Pt10  1  0.25000000  0.77803488  0.12590407  1
  Pt  Pt11  1  0.25000000  0.27803488  0.37409593  1
