# generated using pymatgen
data_YbZnRh
_symmetry_space_group_name_H-M   'P 1'
_cell_length_a   4.02881185
_cell_length_b   6.81646875
_cell_length_c   7.75970716
_cell_angle_alpha   90.00000000
_cell_angle_beta   90.00000000
_cell_angle_gamma   90.00000000
_symmetry_Int_Tables_number   1
_chemical_formula_structural   YbZnRh
_chemical_formula_sum   'Yb4 Zn4 Rh4'
_cell_volume   213.09917373
_cell_formula_units_Z   4
loop_
 _symmetry_equiv_pos_site_id
 _symmetry_equiv_pos_as_xyz
  1  'x, y, z'
loop_
 _atom_site_type_symbol
 _atom_site_label
 _atom_site_symmetry_multiplicity
 _atom_site_fract_x
 _atom_site_fract_y
 _atom_site_fract_z
 _atom_site_occupancy
  Yb  Yb0  1  0.25000000  0.52437010  0.18007392  1
  Yb  Yb1  1  0.75000000  0.47563566  0.81992724  1
  Yb  Yb2  1  0.75000000  0.97563566  0.68007276  1
  Yb  Yb3  1  0.25000000  0.02437010  0.31992608  1
  Zn  Zn4  1  0.25000000  0.64406040  0.56057389  1
  Zn  Zn5  1  0.75000000  0.35593051  0.43944692  1
  Zn  Zn6  1  0.75000000  0.85593051  0.06055308  1
  Zn  Zn7  1  0.25000000  0.14406040  0.93942611  1
  Rh  Rh8  1  0.25000000  0.77330035  0.87117210  1
  Rh  Rh9  1  0.75000000  0.22670199  0.12882948  1
  Rh  Rh10  1  0.75000000  0.72670199  0.37117052  1
  Rh  Rh11  1  0.25000000  0.27330035  0.62882790  1
