# generated using pymatgen
data_NaCdBi
_symmetry_space_group_name_H-M   'P 1'
_cell_length_a   8.19313500
_cell_length_b   4.88144700
_cell_length_c   8.98797100
_cell_angle_alpha   90.00000000
_cell_angle_beta   90.00000000
_cell_angle_gamma   90.00000000
_symmetry_Int_Tables_number   1
_chemical_formula_structural   NaCdBi
_chemical_formula_sum   'Na4 Cd4 Bi4'
_cell_volume   359.46809631
_cell_formula_units_Z   4
loop_
 _symmetry_equiv_pos_site_id
 _symmetry_equiv_pos_as_xyz
  1  'x, y, z'
loop_
 _atom_site_type_symbol
 _atom_site_label
 _atom_site_symmetry_multiplicity
 _atom_site_fract_x
 _atom_site_fract_y
 _atom_site_fract_z
 _atom_site_occupancy
  Na  Na0  1  0.52197700  0.75000000  0.31851000  1
  Na  Na1  1  0.97802300  0.25000000  0.81851000  1
  Na  Na2  1  0.47802300  0.25000000  0.68149000  1
  Na  Na3  1  0.02197700  0.75000000  0.18149000  1
  Cd  Cd4  1  0.85631600  0.25000000  0.42662500  1
  Cd  Cd5  1  0.64368400  0.75000000  0.92662500  1
  Cd  Cd6  1  0.14368400  0.75000000  0.57337500  1
  Cd  Cd7  1  0.35631600  0.25000000  0.07337500  1
  Bi  Bi8  1  0.76775300  0.75000000  0.60977100  1
  Bi  Bi9  1  0.73224700  0.25000000  0.10977100  1
  Bi  Bi10  1  0.23224700  0.25000000  0.39022900  1
  Bi  Bi11  1  0.26775300  0.75000000  0.89022900  1
