# generated using pymatgen
data_YMgAu
_symmetry_space_group_name_H-M   'P 1'
_cell_length_a   7.57550130
_cell_length_b   7.57550130
_cell_length_c   4.09412666
_cell_angle_alpha   90.00000000
_cell_angle_beta   90.00000000
_cell_angle_gamma   119.99999544
_symmetry_Int_Tables_number   1
_chemical_formula_structural   YMgAu
_chemical_formula_sum   'Y3 Mg3 Au3'
_cell_volume   203.47669731
_cell_formula_units_Z   3
loop_
 _symmetry_equiv_pos_site_id
 _symmetry_equiv_pos_as_xyz
  1  'x, y, z'
loop_
 _atom_site_type_symbol
 _atom_site_label
 _atom_site_symmetry_multiplicity
 _atom_site_fract_x
 _atom_site_fract_y
 _atom_site_fract_z
 _atom_site_occupancy
  Y  Y0  1  0.58810952  -0.00000000  0.00000000  1
  Y  Y1  1  -0.00000000  0.58810952  -0.00000000  1
  Y  Y2  1  0.41189048  0.41189048  -0.00000000  1
  Mg  Mg3  1  0.24539853  -0.00000000  0.50000000  1
  Mg  Mg4  1  -0.00000000  0.24539853  0.50000000  1
  Mg  Mg5  1  0.75460147  0.75460147  0.50000000  1
  Au  Au6  1  0.33333300  0.66666700  0.50000000  1
  Au  Au7  1  0.66666700  0.33333300  0.50000000  1
  Au  Au8  1  -0.00000000  0.00000000  0.00000000  1
