# generated using pymatgen
data_PrCdAu
_symmetry_space_group_name_H-M   'P 1'
_cell_length_a   7.96589913
_cell_length_b   7.96589913
_cell_length_c   4.01098589
_cell_angle_alpha   90.00000000
_cell_angle_beta   90.00000000
_cell_angle_gamma   119.99998646
_symmetry_Int_Tables_number   1
_chemical_formula_structural   PrCdAu
_chemical_formula_sum   'Pr3 Cd3 Au3'
_cell_volume   220.42021956
_cell_formula_units_Z   3
loop_
 _symmetry_equiv_pos_site_id
 _symmetry_equiv_pos_as_xyz
  1  'x, y, z'
loop_
 _atom_site_type_symbol
 _atom_site_label
 _atom_site_symmetry_multiplicity
 _atom_site_fract_x
 _atom_site_fract_y
 _atom_site_fract_z
 _atom_site_occupancy
  Pr  Pr0  1  0.59450112  1.00000000  0.00000000  1
  Pr  Pr1  1  1.00000000  0.59450112  -0.00000000  1
  Pr  Pr2  1  0.40549888  0.40549888  -0.00000000  1
  Cd  Cd3  1  0.25639772  1.00000000  0.50000000  1
  Cd  Cd4  1  1.00000000  0.25639772  0.50000000  1
  Cd  Cd5  1  0.74360228  0.74360228  0.50000000  1
  Au  Au6  1  0.33333300  0.66666700  0.50000000  1
  Au  Au7  1  0.66666700  0.33333300  0.50000000  1
  Au  Au8  1  -0.00000000  -0.00000000  0.00000000  1
